2018.2/Mateus Jonathan dos Santos Tavares/AGF01I2/Chaves01I2.dss
New line.DISJ_AGF01I2 phases=3 bus1=INICIO_AGF bus2=COMT_AGF01I2 switch=y enabled=y
New line.SG92E2724 phases=3 bus1=DMUM_SG92E2724 bus2=BVIRT_SG92E2724 switch=y enabled=y
New line.SF34E0409 phases=3 bus1=DMUM_SF34E0409 bus2=PA_D_SF34E0409 switch=y enabled=y
New line.FH94E0506 phases=3 bus1=DMUM_FH94E0506 bus2=BVIRT_FH94E0506 switch=y enabled=y
New line.SU91E5628 phases=3 bus1=DMUM_SU91E5628 bus2=BVIRT_SU91E5628 switch=y enabled=y
New line.FU91S5343 phases=3 bus1=DMUM_FU91S5343 bus2=BVIRT_FU91S5343 switch=y enabled=y
New line.FF34E0585 phases=3 bus1=DMUM_FF34E0585 bus2=BVIRT_FF34E0585 switch=y enabled=y
New line.FU91E5131 phases=3 bus1=DMUM_FU91E5131 bus2=BVIRT_FU91E5131 switch=y enabled=y
New line.4U91E5732 phases=3 bus1=DMUM_4U91E5732 bus2=BVIRT_4U91E5732 switch=y enabled=y
New line.SU91E5061 phases=3 bus1=DMUM_SU91E5061 bus2=BVIRT_SU91E5061 switch=y enabled=y
New line.FK27E0971 phases=3 bus1=DMUM_FK27E0971 bus2=BVIRT_FK27E0971 switch=y enabled=y
New line.FJ42E1040 phases=3 bus1=DMUM_FJ42E1040 bus2=BVIRT_FJ42E1040 switch=y enabled=y
New line.SU91E5732 phases=3 bus1=DMUM_SU91E5732 bus2=BVIRT_SU91E5732 switch=y enabled=y
New line.FU91E4687 phases=3 bus1=DMUM_FU91E4687 bus2=PA_D_FU91E4687 switch=y enabled=y
New line.FU91E4961 phases=3 bus1=DMUM_FU91E4961 bus2=PA_D_FU91E4961 switch=y enabled=y
New line.FU91E4765 phases=3 bus1=DMUM_FU91E4765 bus2=BVIRT_FU91E4765 switch=y enabled=y
New line.FU91E4939 phases=3 bus1=DMUM_FU91E4939 bus2=BVIRT_FU91E4939 switch=y enabled=y
New line.FU91E5016 phases=3 bus1=DMUM_FU91E5016 bus2=BVIRT_FU91E5016 switch=y enabled=y
New line.FH94S2125 phases=3 bus1=DMUM_FH94S2125 bus2=BVIRT_FH94S2125 switch=y enabled=y
New line.5U91E5732 phases=3 bus1=DMUM_5U91E5732 bus2=BVIRT_5U91E5732 switch=y enabled=y
New line.FG71L1039 phases=3 bus1=DMUM_FG71L1039 bus2=BVIRT_FG71L1039 switch=y enabled=y
New line.FY41L1000 phases=3 bus1=DMUM_FY41L1000 bus2=BVIRT_FY41L1000 switch=y enabled=y
New line.SF52E3309 phases=3 bus1=DMUM_SF52E3309 bus2=BVIRT_SF52E3309 switch=y enabled=y
New line.SF90E1336 phases=3 bus1=DMUM_SF90E1336 bus2=BVIRT_SF90E1336 switch=y enabled=y
New line.FT21E2000 phases=3 bus1=DMUM_FT21E2000 bus2=BVIRT_FT21E2000 switch=y enabled=y
New line.FF90E1021 phases=3 bus1=DMUM_FF90E1021 bus2=BVIRT_FF90E1021 switch=y enabled=y
New line.SF90E1636 phases=3 bus1=DMUM_SF90E1636 bus2=BVIRT_SF90E1636 switch=y enabled=y
New line.FF97E0022 phases=3 bus1=DMUM_FF97E0022 bus2=BVIRT_FF97E0022 switch=y enabled=y
New line.SF90E1890 phases=3 bus1=DMUM_SF90E1890 bus2=BVIRT_SF90E1890 switch=y enabled=y
New line.FF90E1843 phases=3 bus1=DMUM_FF90E1843 bus2=BVIRT_FF90E1843 switch=y enabled=y
New line.FN18E0003 phases=3 bus1=DMUM_FN18E0003 bus2=BVIRT_FN18E0003 switch=y enabled=y
New line.FK30E1753 phases=3 bus1=DMUM_FK30E1753 bus2=BVIRT_FK30E1753 switch=y enabled=y
New line.RF90E2085 phases=3 bus1=DMUM_RF90E2085 bus2=BVIRT_RF90E2085 switch=y enabled=y
New line.D.RF90E2085 phases=3 bus1=PA_D_RF90E2085 bus2=BVIRT_D_RF90E2085 switch=y enabled=y
New line.SF90E2130 phases=3 bus1=DMUM_SF90E2130 bus2=BVIRT_SF90E2130 switch=y enabled=y
New line.SF90E2165 phases=3 bus1=DMUM_SF90E2165 bus2=BVIRT_SF90E2165 switch=y enabled=y
New line.4I02E4429 phases=3 bus1=DMUM_4I02E4429 bus2=BVIRT_4I02E4429 switch=y enabled=y
New line.FI02E4712 phases=3 bus1=DMUM_FI02E4712 bus2=BVIRT_FI02E4712 switch=y enabled=y
New line.SF90E2418 phases=3 bus1=DMUM_SF90E2418 bus2=BVIRT_SF90E2418 switch=y enabled=y
New line.RI02E4429 phases=3 bus1=DMUM_RI02E4429 bus2=BVIRT_RI02E4429 switch=y enabled=y
New line.SF90E3628 phases=3 bus1=DMUM_SF90E3628 bus2=BVIRT_SF90E3628 switch=y enabled=y
New line.5I02E4429 phases=3 bus1=DMUM_5I02E4429 bus2=BVIRT_5I02E4429 switch=y enabled=y
New line.FF90E3763 phases=3 bus1=DMUM_FF90E3763 bus2=PA_D_FF90E3763 switch=y enabled=y
New line.SF90E3942 phases=3 bus1=DMUM_SF90E3942 bus2=BVIRT_SF90E3942 switch=y enabled=y
New line.SF90E4254 phases=3 bus1=DMUM_SF90E4254 bus2=BVIRT_SF90E4254 switch=y enabled=y
New line.SJ32E1001 phases=3 bus1=DMUM_SJ32E1001 bus2=BVIRT_SJ32E1001 switch=y enabled=y
New line.FF90E4120 phases=3 bus1=DMUM_FF90E4120 bus2=BVIRT_FF90E4120 switch=y enabled=y
New line.SI02E4385 phases=3 bus1=DMUM_SI02E4385 bus2=BVIRT_SI02E4385 switch=y enabled=y
New line.SF90E4501 phases=3 bus1=DMUM_SF90E4501 bus2=BVIRT_SF90E4501 switch=y enabled=y
New line.FF90E4362 phases=3 bus1=DMUM_FF90E4362 bus2=BVIRT_FF90E4362 switch=y enabled=y
New line.FF90E4431 phases=3 bus1=DMUM_FF90E4431 bus2=BVIRT_FF90E4431 switch=y enabled=y
New line.D.RJ32E1022 phases=3 bus1=PA_D_RJ32E1022 bus2=BVIRT_D_RJ32E1022 switch=y enabled=y
New line.FI02E4262 phases=3 bus1=DMUM_FI02E4262 bus2=BVIRT_FI02E4262 switch=y enabled=y
New line.FI02E3585 phases=3 bus1=DMUM_FI02E3585 bus2=BVIRT_FI02E3585 switch=y enabled=y
New line.SI02E3446 phases=3 bus1=DMUM_SI02E3446 bus2=BVIRT_SI02E3446 switch=y enabled=y
New line.FI83E1122 phases=3 bus1=DMUM_FI83E1122 bus2=BVIRT_FI83E1122 switch=y enabled=y
New line.FI02E3681 phases=3 bus1=DMUM_FI02E3681 bus2=BVIRT_FI02E3681 switch=y enabled=y
New line.FI02E3869 phases=3 bus1=DMUM_FI02E3869 bus2=BVIRT_FI02E3869 switch=y enabled=y
New line.FI02E4204 phases=3 bus1=DMUM_FI02E4204 bus2=BVIRT_FI02E4204 switch=y enabled=y
New line.SF90E4563 phases=3 bus1=DMUM_SF90E4563 bus2=BVIRT_SF90E4563 switch=y enabled=y
New line.FZ04L1127 phases=3 bus1=DMUM_FZ04L1127 bus2=BVIRT_FZ04L1127 switch=y enabled=y
New line.RJ32E1022 phases=3 bus1=DMUM_RJ32E1022 bus2=BVIRT_RJ32E1022 switch=y enabled=y
New line.SI02E3152 phases=3 bus1=DMUM_SI02E3152 bus2=BVIRT_SI02E3152 switch=y enabled=y
New line.FI02E3347 phases=3 bus1=DMUM_FI02E3347 bus2=BVIRT_FI02E3347 switch=y enabled=y
New line.FI02E3422 phases=3 bus1=DMUM_FI02E3422 bus2=BVIRT_FI02E3422 switch=y enabled=y
New line.FF90E5031 phases=3 bus1=DMUM_FF90E5031 bus2=BVIRT_FF90E5031 switch=y enabled=y
New line.FF90E5064 phases=3 bus1=DMUM_FF90E5064 bus2=BVIRT_FF90E5064 switch=y enabled=y
New line.FJ32E1485 phases=3 bus1=DMUM_FJ32E1485 bus2=PA_D_FJ32E1485 switch=y enabled=y
New line.SJ32E1767 phases=3 bus1=DMUM_SJ32E1767 bus2=BVIRT_SJ32E1767 switch=y enabled=y
New line.SF61E2020 phases=3 bus1=DMUM_SF61E2020 bus2=BVIRT_SF61E2020 switch=y enabled=y
New line.FF61E2081 phases=3 bus1=DMUM_FF61E2081 bus2=BVIRT_FF61E2081 switch=y enabled=y
New line.FF61E2782 phases=3 bus1=DMUM_FF61E2782 bus2=BVIRT_FF61E2782 switch=y enabled=y
New line.FF61E2828 phases=3 bus1=DMUM_FF61E2828 bus2=BVIRT_FF61E2828 switch=y enabled=y
New line.FF61E2958 phases=3 bus1=DMUM_FF61E2958 bus2=BVIRT_FF61E2958 switch=y enabled=y
New line.FF64E0005 phases=3 bus1=DMUM_FF64E0005 bus2=BVIRT_FF64E0005 switch=y enabled=y
New line.FF99E0272 phases=3 bus1=DMUM_FF99E0272 bus2=BVIRT_FF99E0272 switch=y enabled=y
New line.FF99E0295 phases=3 bus1=DMUM_FF99E0295 bus2=BVIRT_FF99E0295 switch=y enabled=y
New line.FF99E0310 phases=3 bus1=DMUM_FF99E0310 bus2=BVIRT_FF99E0310 switch=y enabled=y
New line.FJ32E2030 phases=3 bus1=DMUM_FJ32E2030 bus2=BVIRT_FJ32E2030 switch=y enabled=y
New line.SJ33E1010 phases=3 bus1=DMUM_SJ33E1010 bus2=BVIRT_SJ33E1010 switch=y enabled=y
New line.FJ32E2110 phases=3 bus1=DMUM_FJ32E2110 bus2=BVIRT_FJ32E2110 switch=y enabled=y
New line.SF61E1751 phases=3 bus1=DMUM_SF61E1751 bus2=BVIRT_SF61E1751 switch=y enabled=y
New line.FF24E1155 phases=3 bus1=DMUM_FF24E1155 bus2=BVIRT_FF24E1155 switch=y enabled=y
New line.FJ33E1545 phases=3 bus1=DMUM_FJ33E1545 bus2=BVIRT_FJ33E1545 switch=y enabled=y
New line.FJ33E1599 phases=3 bus1=DMUM_FJ33E1599 bus2=BVIRT_FJ33E1599 switch=y enabled=y
New line.SJ33E1533 phases=3 bus1=DMUM_SJ33E1533 bus2=BVIRT_SJ33E1533 switch=y enabled=y
New line.FJ33E1280 phases=3 bus1=DMUM_FJ33E1280 bus2=BVIRT_FJ33E1280 switch=y enabled=y
New line.FT17L0685 phases=3 bus1=DMUM_FT17L0685 bus2=BVIRT_FT17L0685 switch=y enabled=y
New line.SF61E1652 phases=3 bus1=DMUM_SF61E1652 bus2=BVIRT_SF61E1652 switch=y enabled=y
New line.FU22E2000 phases=3 bus1=DMUM_FU22E2000 bus2=BVIRT_FU22E2000 switch=y enabled=y
New line.FF61E1708 phases=3 bus1=DMUM_FF61E1708 bus2=BVIRT_FF61E1708 switch=y enabled=y
New line.FN36L0928 phases=3 bus1=DMUM_FN36L0928 bus2=BVIRT_FN36L0928 switch=y enabled=y
New line.FI91L2509 phases=3 bus1=DMUM_FI91L2509 bus2=BVIRT_FI91L2509 switch=y enabled=y
New line.FI91L2615 phases=3 bus1=DMUM_FI91L2615 bus2=BVIRT_FI91L2615 switch=y enabled=y
New line.FI91L2659 phases=3 bus1=DMUM_FI91L2659 bus2=BVIRT_FI91L2659 switch=y enabled=y
New line.FI91L2753 phases=3 bus1=DMUM_FI91L2753 bus2=BVIRT_FI91L2753 switch=y enabled=y
New line.SF61E1614 phases=3 bus1=DMUM_SF61E1614 bus2=BVIRT_SF61E1614 switch=y enabled=y
New line.FU22E2223 phases=3 bus1=DMUM_FU22E2223 bus2=BVIRT_FU22E2223 switch=y enabled=y
New line.FU22E2985 phases=3 bus1=DMUM_FU22E2985 bus2=BVIRT_FU22E2985 switch=y enabled=y
New line.FU22E2836 phases=3 bus1=DMUM_FU22E2836 bus2=BVIRT_FU22E2836 switch=y enabled=y
New line.FU22E2563 phases=3 bus1=DMUM_FU22E2563 bus2=BVIRT_FU22E2563 switch=y enabled=y
New line.FM94L1000 phases=3 bus1=DMUM_FM94L1000 bus2=BVIRT_FM94L1000 switch=y enabled=y
New line.FO35E2222 phases=3 bus1=DMUM_FO35E2222 bus2=BVIRT_FO35E2222 switch=y enabled=y
New line.FO35E2124 phases=3 bus1=DMUM_FO35E2124 bus2=BVIRT_FO35E2124 switch=y enabled=y
New line.SF61E1144 phases=3 bus1=DMUM_SF61E1144 bus2=BVIRT_SF61E1144 switch=y enabled=y
New line.FX52E2120 phases=3 bus1=DMUM_FX52E2120 bus2=BVIRT_FX52E2120 switch=y enabled=y
New line.FF61E1445 phases=3 bus1=DMUM_FF61E1445 bus2=BVIRT_FF61E1445 switch=y enabled=y
New line.FF61E1388 phases=3 bus1=DMUM_FF61E1388 bus2=BVIRT_FF61E1388 switch=y enabled=y
New line.FI35L1084 phases=3 bus1=DMUM_FI35L1084 bus2=BVIRT_FI35L1084 switch=y enabled=y
New line.FD51L0211 phases=3 bus1=DMUM_FD51L0211 bus2=BVIRT_FD51L0211 switch=y enabled=y
New line.FO35E2319 phases=3 bus1=DMUM_FO35E2319 bus2=BVIRT_FO35E2319 switch=y enabled=y
New line.FF61E0676 phases=3 bus1=DMUM_FF61E0676 bus2=BVIRT_FF61E0676 switch=y enabled=y
New line.FF61E0708 phases=3 bus1=DMUM_FF61E0708 bus2=BVIRT_FF61E0708 switch=y enabled=y
New line.FF61E0767 phases=3 bus1=DMUM_FF61E0767 bus2=BVIRT_FF61E0767 switch=y enabled=y
New line.FF61E1084 phases=3 bus1=DMUM_FF61E1084 bus2=BVIRT_FF61E1084 switch=y enabled=y
New line.FF93E0732 phases=3 bus1=DMUM_FF93E0732 bus2=BVIRT_FF93E0732 switch=y enabled=y
New line.FF98E1004 phases=3 bus1=DMUM_FF98E1004 bus2=BVIRT_FF98E1004 switch=y enabled=y
//
New line.FF93E0896 phases=3 bus1=DMUM_FF93E0896 bus2=BVIRT_FF93E0896 switch=y enabled=y
New line.FT55E1989 phases=3 bus1=DMUM_FT55E1989 bus2=BVIRT_FT55E1989 switch=y enabled=y
New line.FZ83L1034 phases=3 bus1=DMUM_FZ83L1034 bus2=BVIRT_FZ83L1034 switch=y enabled=y
New line.FE36L1428 phases=3 bus1=DMUM_FE36L1428 bus2=BVIRT_FE36L1428 switch=y enabled=y
New line.FF98E1264 phases=3 bus1=DMUM_FF98E1264 bus2=BVIRT_FF98E1264 switch=y enabled=y
New line.FF98E1400 phases=3 bus1=DMUM_FF98E1400 bus2=BVIRT_FF98E1400 switch=y enabled=y
New line.FE36L1488 phases=3 bus1=DMUM_FE36L1488 bus2=BVIRT_FE36L1488 switch=y enabled=y
New line.FF87E0218 phases=3 bus1=DMUM_FF87E0218 bus2=BVIRT_FF87E0218 switch=y enabled=y
New line.FF87E0247 phases=3 bus1=DMUM_FF87E0247 bus2=BVIRT_FF87E0247 switch=y enabled=y
New line.FF98E1042 phases=3 bus1=DMUM_FF98E1042 bus2=BVIRT_FF98E1042 switch=y enabled=y
New line.FI32E3228 phases=3 bus1=DMUM_FI32E3228 bus2=BVIRT_FI32E3228 switch=y enabled=y
New line.FF78L0804 phases=3 bus1=DMUM_FF78L0804 bus2=BVIRT_FF78L0804 switch=y enabled=y
New line.SU22E2000 phases=3 bus1=DMUM_SU22E2000 bus2=PA_D_SU22E2000 switch=y enabled=n
New line.6F61E1614 phases=3 bus1=DMUM_6F61E1614 bus2=BVIRT_6F61E1614 switch=y enabled=n
New line.SX52E2120 phases=3 bus1=DMUM_SX52E2120 bus2=BVIRT_SX52E2120 switch=y enabled=n
New line.SU22E2618 phases=3 bus1=DMUM_SU22E2618 bus2=BVIRT_SU22E2618 switch=y enabled=n
New line.6J32E1022 phases=3 bus1=DMUM_6J32E1022 bus2=BVIRT_6J32E1022 switch=y enabled=n
New line.6U91E5732 phases=3 bus1=DMUM_6U91E5732 bus2=BVIRT_6U91E5732 switch=y enabled=n
New line.6I02E4429 phases=3 bus1=DMUM_6I02E4429 bus2=BVIRT_6I02E4429 switch=y enabled=n
New line.6F90E2085 phases=3 bus1=DMUM_6F90E2085 bus2=BVIRT_6F90E2085 switch=y enabled=n
