2018.2/Mateus Jonathan dos Santos Tavares/Agf69_EXP_LOSSES.CSV
Element,  Total(W), Total(var),  I2R(W), I2X(var), No-load(W), No-load(var)
Transformer.TRAFO_1, 37946.64, 577009.5, 19190.27, 483227.6, 18756.37, 93781.83
Line.INICIO, 37.46536, -205.3963, 37.46536, -205.3963, 0, 0
Transformer.34E0508_TR1, 0.002779103, 555.7997, 0.002779103, 0.09264563, 1.598721E-014, 555.707
Transformer.91E5092_TR1, 0.001702324, 340.453, 0.001702324, 0.05674974, 0, 340.3963
Transformer.91E5688_TR1, 0.0025618, 512.341, 0.0025618, 0.08540156, 1.776357E-015, 512.2556
Transformer.80E1234_TR1, 0.001718818, 343.752, 0.001718818, 0.05729964, 0, 343.6947
Transformer.34E0585_M_1, 0.003688551, 737.6862, 0.003688551, 0.1229641, 1.776357E-015, 737.5632
Transformer.27E1076_TR1, 0.001707273, 341.4443, 0.001707273, 0.05691497, 1.776357E-015, 341.3873
Transformer.42E1200_TR1, 0.002568194, 513.6193, 0.002568194, 0.08561464, -1.421085E-014, 513.5337
Transformer.88L2072_TR1, 0.0051013, 1020.224, 0.0051013, 0.17006, -2.4869E-014, 1020.054
Transformer.61E1143_TR1, 0.002563394, 512.6606, 0.002563394, 0.08545484, -1.421085E-014, 512.5752
Transformer.91E4735_M_1, 0.001700623, 340.1132, 0.001700623, 0.0566931, 0, 340.0565
Transformer.91E4939_M_1, 0.003402907, 680.5589, 0.003402907, 0.1134416, 1.421085E-014, 680.4455
Transformer.91E4939_TR1, 0.001020881, 204.1677, 0.001020881, 0.03403248, -3.552714E-015, 204.1337
Transformer.94S2338_TR1, 0.003399996, 679.9751, 0.003399996, 0.1133443, 1.065814E-014, 679.8617
Transformer.90E1011_TR1, 0.002537338, 507.448, 0.002537338, 0.08458596, -1.24345E-014, 507.3635
Transformer.90E0848_TR1, 0.00338372, 676.7213, 0.00338372, 0.1128019, -1.421085E-014, 676.6085
Transformer.71L1039_M_1, 0.006806673, 1361.294, 0.006806673, 0.2269126, 2.842171E-014, 1361.067
Transformer.41L1000_M_1, 0.01132675, 2265.27, 0.01132675, 0.3775953, 9.947598E-014, 2264.892
Transformer.90E1382_TR1, 0.0009998054, 199.9527, 0.0009998054, 0.03332989, 8.881784E-016, 199.9194
Transformer.21E1800_TR1, 0.001007411, 201.4741, 0.001007411, 0.0335835, 8.881784E-016, 201.4406
Transformer.90E1021_M_1, 0.002536584, 507.2985, 0.002536584, 0.08456103, -1.598721E-014, 507.2139
Transformer.97E0238_TR1, 0.000996395, 199.27, 0.000996395, 0.03321609, 0, 199.2367
Transformer.30E1035_TR1, 0.0009961319, 199.2173, 0.0009961319, 0.03320732, -3.552714E-015, 199.1841
Transformer.30E1070_M_1, 0.001660189, 332.0254, 0.001660189, 0.05534494, -1.421085E-014, 331.97
Transformer.90E2031_TR1, 0.003275028, 654.9855, 0.003275028, 0.1091788, 0, 654.8764
Transformer.28E0339_TR1, 0.001645583, 329.1058, 0.001645583, 0.05485827, -1.776357E-015, 329.0509
Transformer.28E0065_TR1, 0.003291345, 658.246, 0.003291345, 0.1097223, -3.552714E-015, 658.1363
Transformer.18E0096_TR1, 0.002501485, 500.2802, 0.002501485, 0.08339116, -1.421085E-014, 500.1968
Transformer.30E1713_TR1, 0.0009960119, 199.1939, 0.0009960119, 0.03320341, 0, 199.1607
Transformer.02E4914_TR1, 0.003257738, 651.5267, 0.003257738, 0.1086023, -1.065814E-014, 651.4181
Transformer.02E4792_TR1, 0.001624993, 324.9864, 0.001624993, 0.05417163, 7.105427E-015, 324.9323
Transformer.71E1021_TR1, 0.0006488151, 129.76, 0.0006488151, 0.02162955, -3.552714E-015, 129.7384
Transformer.90E2616_TR1, 0.0006510846, 130.2141, 0.0006510846, 0.02170525, 3.552714E-015, 130.1924
Transformer.90E3019_TR1, 0.0009743837, 194.8691, 0.0009743837, 0.03248251, 0, 194.8366
Transformer.90E3475_TR1, 0.001619154, 323.8202, 0.001619154, 0.05397723, 0, 323.7662
Transformer.90E3942_M_1, 0.006451526, 1290.259, 0.006451526, 0.2150718, -2.842171E-014, 1290.044
Transformer.90E4120_M_1, 0.001611502, 322.2907, 0.001611502, 0.05372229, 0, 322.237
Transformer.02E3554_TR1, 0.003174776, 634.9346, 0.003174776, 0.1058365, 0, 634.8288
Transformer.02E3976_TR1, 0.00159929, 319.8481, 0.00159929, 0.05331512, 0, 319.7948
Transformer.02E4181_TR1, 0.0009632173, 192.6354, 0.0009632173, 0.03211018, 0, 192.6033
Transformer.02E4345_TR1, 0.001610321, 322.0537, 0.001610321, 0.05368278, 0, 322.0001
Transformer.12L1200_TR1, 0.001609332, 321.8541, 0.001609332, 0.05364951, 7.105427E-015, 321.8005
Transformer.90E4431_M_1, 0.001608653, 321.7197, 0.001608653, 0.0536271, 0, 321.6661
Transformer.02E4262_M_1, 0.001607745, 321.539, 0.001607745, 0.05359698, 1.421085E-014, 321.4854
Transformer.02E3585_M_1, 0.001588374, 317.6643, 0.001588374, 0.05295111, 1.421085E-014, 317.6113
Transformer.02E3281_TR1, 0.0009480747, 189.6071, 0.0009480747, 0.03160539, 0, 189.5755
Transformer.83E1122_M_1, 0.001589002, 317.7892, 0.001589002, 0.05297193, 7.105427E-015, 317.7362
Transformer.87L1201_TR1, 0.0009546649, 190.925, 0.0009546649, 0.03182508, 2.664535E-015, 190.8932
Transformer.49L1070_TR1, 0.001590905, 318.1712, 0.001590905, 0.05303561, -7.105427E-015, 318.1182
Transformer.02E3869_M_1, 0.001596609, 319.3103, 0.001596609, 0.05322547, 0, 319.2571
Transformer.02E4204_M_1, 0.002419796, 483.9429, 0.002419796, 0.0806679, -3.552714E-015, 483.8622
Transformer.90E4832_TR1, 0.001605913, 321.1717, 0.001605913, 0.05353576, -7.105427E-015, 321.1182
Transformer.57E0980_TR1, 0.0003208979, 64.17806, 0.0003208979, 0.01069777, 8.881784E-016, 64.16736
Transformer.04L1127_M_1, 0.001608965, 321.7827, 0.001608965, 0.05363761, -7.105427E-015, 321.7291
Transformer.32E1043_TR1, 0.002431126, 486.2049, 0.002431126, 0.08104495, 1.065814E-014, 486.1238
Transformer.32E1597_TR1, 0.003222695, 644.5198, 0.003222695, 0.1074343, 2.842171E-014, 644.4123
Transformer.32E1726_TR1, 0.0006443648, 128.8697, 0.0006443648, 0.02148116, 8.881784E-016, 128.8483
Transformer.61E2134_TR1, 0.0015515, 310.2881, 0.0015515, 0.05172158, 1.776357E-015, 310.2364
Transformer.93E0066_TR1, 0.001560556, 312.0985, 0.001560556, 0.05202335, 0, 312.0465
Transformer.61E2872_TR1, 0.001569136, 313.8178, 0.001569136, 0.05230994, 0, 313.7655
Transformer.02E3107_TR1, 0.0009452428, 189.0406, 0.0009452428, 0.03151096, 3.552714E-015, 189.0091
Transformer.15E0937_TR1, 0.0009490847, 189.8092, 0.0009490847, 0.03163909, 8.881784E-016, 189.7776
Transformer.50E1041_TR1, 0.001583811, 316.751, 0.001583811, 0.05279887, 7.105427E-015, 316.6982
Transformer.99E0315_M_1, 0.01438036, 2875.938, 0.01438036, 0.4793868, 0, 2875.458
Transformer.99E0258_TR1, 0.0006400542, 128.0083, 0.0006400542, 0.02133756, 1.776357E-015, 127.987
Transformer.90E5064_M_1, 0.002417445, 483.473, 0.002417445, 0.08058958, 0, 483.3924
Transformer.98L1178_TR1, 0.004834429, 966.8472, 0.004834429, 0.1611627, -1.421085E-014, 966.686
Transformer.32E1991_TR1, 0.000966248, 193.2408, 0.000966248, 0.0322111, 3.552714E-015, 193.2086
Transformer.61E1841_TR1, 0.0009267134, 185.3355, 0.0009267134, 0.03089338, -8.881784E-016, 185.3046
Transformer.80L2099_TR1, 0.003090757, 618.1295, 0.003090757, 0.1030353, 0, 618.0264
Transformer.64E1626_TR1, 0.001550013, 309.9932, 0.001550013, 0.05167243, -8.881784E-015, 309.9416
Transformer.92E1301_TR1, 0.000939571, 187.907, 0.000939571, 0.031322, 3.552714E-015, 187.8757
Transformer.92E1343_TR1, 0.002359211, 471.8233, 0.002359211, 0.0786477, 3.552714E-015, 471.7446
Transformer.89L2325_TR1, 0.00156546, 313.0817, 0.00156546, 0.05218724, 0, 313.0295
Transformer.64E2403_TR1, 0.0003131172, 62.62202, 0.0003131172, 0.0104384, 8.881784E-016, 62.61158
Transformer.60E0367_TR1, 0.0006285588, 125.7085, 0.0006285588, 0.02095421, 3.552714E-015, 125.6876
Transformer.40E1169_TR1, 0.00155549, 311.0888, 0.00155549, 0.05185504, -1.421085E-014, 311.0369
Transformer.64E0305_TR1, 0.0009333376, 186.6603, 0.0009333376, 0.0311142, -8.881784E-016, 186.6292
Transformer.64E0575_TR1, 0.002343338, 468.6477, 0.002343338, 0.07811837, -3.552714E-015, 468.5696
Transformer.99E0272_M_1, 0.001599889, 319.9665, 0.001599889, 0.05333486, -7.105427E-015, 319.9131
Transformer.99E0295_M_1, 0.006398895, 1279.734, 0.006398895, 0.2133174, 0, 1279.52
Transformer.99E0310_M_1, 0.004798417, 959.6407, 0.004798417, 0.1599614, 2.842171E-014, 959.4807
Transformer.51L3125_TR1, 0.0009662168, 193.2357, 0.0009662168, 0.03221024, -4.440892E-015, 193.2034
Transformer.96E1208_TR1, 0.0009661126, 193.214, 0.0009661126, 0.03220663, -3.552714E-015, 193.1818
Transformer.96E0877_TR1, 0.0009661076, 193.2131, 0.0009661076, 0.03220647, -8.881784E-016, 193.1809
Transformer.24E1155_M_1, 0.001566171, 313.2228, 0.001566171, 0.05221076, 0, 313.1706
Transformer.28E2347_TR1, 0.000643829, 128.763, 0.000643829, 0.02146336, -3.552714E-015, 128.7416
Transformer.33E1707_TR1, 0.001609568, 321.9045, 0.001609568, 0.05365791, 0, 321.8508
Transformer.91L2332_TR1, 0.000321888, 64.37573, 0.000321888, 0.01073072, 0, 64.365
Transformer.91L2703_TR1, 0.001609239, 321.8358, 0.001609239, 0.05364646, 0, 321.7822
Transformer.46E1040_TR1, 0.0009659616, 193.1848, 0.0009659616, 0.03220175, -4.440892E-015, 193.1525
Transformer.65L1133_TR1, 0.001610161, 322.0206, 0.001610161, 0.05367725, 7.105427E-015, 321.9669
Transformer.22E2801_TR1, 0.00153453, 306.8967, 0.00153453, 0.05115627, -8.881784E-015, 306.8455
Transformer.22E2658_TR1, 0.002312801, 462.5442, 0.002312801, 0.07710098, 7.105427E-015, 462.4671
Transformer.22E3027_TR1, 0.002311451, 462.273, 0.002311451, 0.07705577, -3.552714E-015, 462.1959
Transformer.22E2299_TR1, 0.001537666, 307.5229, 0.001537666, 0.05126066, 0, 307.4717
Transformer.19L2076_TR1, 0.001536341, 307.2583, 0.001536341, 0.05121655, 7.105427E-015, 307.2071
Transformer.22E2153_TR1, 0.00153902, 307.7943, 0.00153902, 0.0513059, 7.105427E-015, 307.743
Transformer.35E2158_TR1, 0.00154094, 308.1758, 0.00154094, 0.05136948, -7.105427E-015, 308.1244
Transformer.36L1030_TR1, 0.000965521, 193.0955, 0.000965521, 0.03218688, 0, 193.0633
Transformer.17L1115_TR1, 0.000965544, 193.101, 0.000965544, 0.03218779, 0, 193.0688
Transformer.91L2615_M_1, 0.001609263, 321.8408, 0.001609263, 0.05364729, 7.105427E-015, 321.7872
Transformer.91L2659_M_1, 0.002424607, 484.903, 0.002424607, 0.08082794, -7.105427E-015, 484.8222
Transformer.91L2753_M_1, 0.002424573, 484.8992, 0.002424573, 0.08082732, 0, 484.8184
Transformer.61E1262_TR1, 0.00153504, 306.9969, 0.00153504, 0.05117297, 0, 306.9457
Transformer.61E1433_TR1, 0.001537386, 307.4656, 0.001537386, 0.0512511, 7.105427E-015, 307.4144
Transformer.61E1592_TR1, 0.002319769, 463.9363, 0.002319769, 0.07733302, -3.552714E-015, 463.8589
Transformer.92L1125_TR1, 0.002317943, 463.5732, 0.002317943, 0.0772725, 0, 463.4959
Transformer.55E0739_TR1, 0.000920479, 184.088, 0.000920479, 0.03068543, -3.552714E-015, 184.0573
Transformer.34L0960_TR1, 0.0006136684, 122.7298, 0.0006136684, 0.0204577, 0, 122.7094
Transformer.55L0247_TR1, 0.001534034, 306.7963, 0.001534034, 0.05113953, 0, 306.7451
Transformer.51L0239_TR1, 0.001535179, 307.0238, 0.001535179, 0.05117746, 0, 306.9726
Transformer.94L1247_TR1, 0.003071475, 614.2725, 0.003071475, 0.1023924, 0, 614.1701
Transformer.94L1083_TR1, 0.002314323, 462.8476, 0.002314323, 0.07715156, -3.552714E-015, 462.7704
Transformer.84L1083_TR1, 0.000924121, 184.8161, 0.000924121, 0.03080679, 0, 184.7853
Transformer.36E2960_TR1, 0.001540746, 308.1383, 0.001540746, 0.05136323, -7.105427E-015, 308.0869
Transformer.40L0971_TR1, 0.00154041, 308.0703, 0.00154041, 0.05135189, 1.776357E-015, 308.0189
Transformer.61E0386_TR1, 0.002301007, 460.1854, 0.002301007, 0.07670779, -7.105427E-015, 460.1087
Transformer.61E0609_TR1, 0.003055313, 611.0443, 0.003055313, 0.1018543, 0, 610.9425
Transformer.88E1200_TR1, 0.001527171, 305.4235, 0.001527171, 0.0509107, 0, 305.3726
Transformer.30L1090_TR1, 0.002304028, 460.79, 0.002304028, 0.07680858, -7.105427E-015, 460.7132
Transformer.50L1124_TR1, 0.002303938, 460.7723, 0.002303938, 0.07680563, 7.105427E-015, 460.6955
Transformer.32L1118_TR1, 0.001530761, 306.1419, 0.001530761, 0.05103045, 7.105427E-015, 306.0908
Transformer.23E1193_TR1, 0.002303382, 460.6622, 0.002303382, 0.07678727, 1.065814E-014, 460.5854
Transformer.23E1231_TR1, 0.001528762, 305.7404, 0.001528762, 0.05096352, 0, 305.6894
Transformer.52E2040_TR1, 0.001533241, 306.6372, 0.001533241, 0.05111301, 0, 306.5861
Transformer.26E2714_TR1, 0.001528567, 305.7023, 0.001528567, 0.05095718, 8.881784E-015, 305.6513
Transformer.61E1445_M_1, 0.001537541, 307.4972, 0.001537541, 0.05125636, 0, 307.4459
Transformer.35L1084_M_1, 0.00231153, 462.2892, 0.00231153, 0.07705847, -1.421085E-014, 462.2122
Transformer.51L0211_M_1, 0.001535179, 307.0244, 0.001535179, 0.05117756, -7.105427E-015, 306.9732
Transformer.94L1084_TR1, 0.00154058, 308.1055, 0.00154058, 0.05135776, -7.105427E-015, 308.0541
Transformer.55E1808_TR1, 0.0006120789, 122.4129, 0.0006120789, 0.02040487, 0, 122.3925
Transformer.61E1084_M_1, 0.02299062, 4597.997, 0.02299062, 0.7664351, 1.136868E-013, 4597.231
Transformer.93E0675_TR1, 0.002303764, 460.7369, 0.002303764, 0.07679973, -7.105427E-015, 460.6601
Transformer.93E0565_TR1, 0.001529028, 305.7951, 0.001529028, 0.05097265, 0, 305.7442
Transformer.98E1580_TR1, 0.002289958, 457.9746, 0.002289958, 0.07633928, 0, 457.8983
Transformer.98E1318_TR1, 0.004568628, 913.6905, 0.004568628, 0.1523021, 0, 913.5382
Transformer.36L1310_TR1, 0.003035595, 607.0982, 0.003035595, 0.1011965, 0, 606.9971
Transformer.93E0896_M_1, 0.001529113, 305.8127, 0.001529113, 0.05097558, -7.105427E-015, 305.7617
Transformer.55E1989_M_1, 0.001530218, 306.0322, 0.001530218, 0.05101217, 0, 305.9812
Transformer.83L1034_M_1, 0.001517798, 303.549, 0.001517798, 0.05059824, 0, 303.4984
Transformer.36L1428_M_1, 0.001518073, 303.6038, 0.001518073, 0.05060737, 0, 303.5532
Transformer.06E1605_TR1, 0.003047211, 609.4236, 0.003047211, 0.1015841, 1.421085E-014, 609.322
Transformer.36L1488_M_1, 0.001518427, 303.6749, 0.001518427, 0.05061923, 0, 303.6243
Transformer.50E0188_TR1, 0.001518731, 303.736, 0.001518731, 0.05062942, 7.105427E-015, 303.6854
Transformer.87E0416_TR1, 0.001519302, 303.8509, 0.001519302, 0.05064856, -7.105427E-015, 303.8002
Transformer.98E1042_M_1, 0.002300614, 460.1068, 0.002300614, 0.0766947, 0, 460.0301
Transformer.32E3228_M_1, 0.001518712, 303.7328, 0.001518712, 0.05062889, 8.881784E-015, 303.6822
Transformer.78L0804_M_1, 0.001518458, 303.6823, 0.001518458, 0.05062048, 0, 303.6317
Line.D_AGF01I2|D_AG3, 1337.379, 2417.907, 1337.379, 2417.907, 0, 0
Line.D_AG1|D_AG3, 4430.073, 8009.338, 4430.073, 8009.338, 0, 0
Line.AGF01I2|D_AGF01I2, 1086.62, 1964.547, 1086.62, 1964.547, 0, 0
Line.D_AG1|SG92E2724, 1337.382, 2417.92, 1337.382, 2417.92, 0, 0
Line.D_FH94E0506|D_F34E04, 1499.818, 2711.38, 1499.818, 2711.38, 0, 0
Line.D_SF34E0409|D_F34E04, 6078.217, 10988.27, 6078.217, 10988.27, 0, 0
Line.EL_115214280, 0.26555, -0.1023923, 0.26555, -0.1023923, 0, 0
Line.D_H94E0383|D_FH94E05, 10281.17, 18588.03, 10281.17, 18588.03, 0, 0
Line.D_H94E0383|D_G92E283, 1003.039, 1813.457, 1003.039, 1813.457, 0, 0
Line.E_-2691602|D_G92E283, 7439.197, 13449.75, 7439.197, 13449.75, 0, 0
Line.SG92E2724|E_-2691602, 752.2774, 1360.082, 752.2774, 1360.082, 0, 0
Line.SF34E0409|E_-2523928, 663.4187, 1274.951, 663.4187, 1274.951, 0, 0
Line.E_-2523928|E_-252393, 6059.236, 11644.63, 6059.236, 11644.63, 0, 0
Line.E_-2523938|E_-252394, 5351.606, 10284.78, 5351.606, 10284.78, 0, 0
Line.E_-2523946|E_-252394, 973.0211, 1869.97, 973.0211, 1869.97, 0, 0
Line.E_-2523948|E_-252396, 3980.547, 7649.912, 3980.547, 7649.912, 0, 0
Line.E_-2523962|E_-252396, 796.1104, 1529.989, 796.1104, 1529.989, 0, 0
Line.E_-2523964|E_-252397, 3980.558, 7649.977, 3980.558, 7649.977, 0, 0
Line.E_-2523970|E_-252397, 3405.596, 6545.024, 3405.596, 6545.024, 0, 0
Line.E_-2523974|E_-252410, 1238.4, 2380.019, 1238.4, 2380.019, 0, 0
Line.EL_237969588, 11985.99, 23035.45, 11985.99, 23035.45, 0, 0
Line.EL_237969642, 5484.392, 10540.37, 5484.392, 10540.37, 0, 0
Line.EL_237969631, 13268.76, 25501.32, 13268.76, 25501.32, 0, 0
Line.EL_237969620, 14374.61, 27627.11, 14374.61, 27627.11, 0, 0
Line.EL_167655460, 14772.8, 28392.9, 14772.8, 28392.9, 0, 0
Line.EL_178356939, 1724.975, 3315.386, 1724.975, 3315.386, 0, 0
Line.EL_237969566, 15082.55, 28988.8, 15082.55, 28988.8, 0, 0
Line.EL_190890814, 2388.451, 4590.672, 2388.451, 4590.672, 0, 0
Line.EL_178356855, 10973.06, 19838.84, 10973.06, 19838.84, 0, 0
Line.EL_190890830, 18393.78, 33255.52, 18393.78, 33255.52, 0, 0
Line.EL_224516413, 21235.87, 38394.46, 21235.87, 38394.46, 0, 0
Line.EL_178356735, 15145.42, 27383.22, 15145.42, 27383.22, 0, 0
Line.EL_224516426, -7.657992E-007, -0.1566178, -7.657992E-007, -0.1566178, 0, 0
Line.34E0508|D_FF34E0585, 6.416342, -14.19791, 6.416342, -14.19791, 0, 0
Line.FH94E0506|34E0508, 1.858746, -0.7167003, 1.858746, -0.7167003, 0, 0
Line.EL_1048193, 0.08790959, -0.1944757, 0.08790959, -0.1944757, 0, 0
Line.EL_1048187, 1.296912E-007, -8.642158, 1.296912E-007, -8.642158, 0, 0
Line.D_FU91E5131|D_U91E52, 101.925, 166.1737, 101.925, 166.1737, 0, 0
Line.D_U91E5215|E_-156360, 98.23954, 160.1588, 98.23954, 160.1588, 0, 0
Line.91E5092|D_FU91E5131, 49.12106, 80.08698, 49.12106, 80.08698, 0, 0
Line.EL_153197170, 1.04883E-005, -0.2216052, 1.04883E-005, -0.2216052, 0, 0
Line.E_-1563608|E_-156361, 141.2168, 230.2135, 141.2168, 230.2135, 0, 0
Line.EL_160090044, 40.61492, 64.46351, 40.61492, 64.46351, 0, 0
Line.E_-1563614|D_FJ42E1, 95.78018, 156.1349, 95.78018, 156.1349, 0, 0
Line.D_FJ42E1040|FJ42E10, 5.572669, -13.31075, 5.572669, -13.31075, 0, 0
Line.D_FJ42E1040|D_D_SU9, 124.322, 207.3698, 124.322, 207.3698, 0, 0
Line.D_D_SU91E5547|D_SU91, 27.97223, 46.6569, 27.97223, 46.6569, 0, 0
Line.D_U91E5614|D_SU91E55, 4294.021, 7759.403, 4294.021, 7759.403, 0, 0
Line.EL_221798848, 1964.129, 3551.183, 1964.129, 3551.183, 0, 0
Line.D_U91E5614|91E5688, 2263.069, 4089.436, 2263.069, 4089.436, 0, 0
Line.EL_165381603, 559.886, 175.5752, 559.886, 175.5752, 0, 0
Line.EL_221798754, 0.01146609, -1.994078, 0.01146609, -1.994078, 0, 0
Line.EL_208693393, 1051.012, 1899.018, 1051.012, 1899.018, 0, 0
Line.EL_172215739, -2.800981E-006, -0.4422389, -2.800981E-006, -0.4422389, 0, 0
Line.EL_172215757, 110.6329, 199.897, 110.6329, 199.897, 0, 0
Line.REG1_1, 55.31639, 99.94839, 55.31639, 99.94839, 0, 0
Line.REG1_2, 55.3164, 99.94841, 55.3164, 99.94841, 0, 0
Line.REG1_3, 553.1643, 999.4845, 553.1643, 999.4845, 0, 0
Line.EL_224516352, 0.001547938, -7.158393, 0.001547938, -7.158393, 0, 0
Line.EL_224516378, 0.00155051, -7.158384, 0.00155051, -7.158384, 0, 0
Line.EL_224516346, 0.0004822556, -2.236999, 0.0004822556, -2.236999, 0, 0
Line.EL_224516384, 0.01164033, -53.24016, 0.01164033, -53.24016, 0, 0
Line.FF34E0585|34E0585, 1.670204, -3.694925, 1.670204, -3.694925, 0, 0
Line.EL_154950210, -7.840081E-006, -0.2216124, -7.840081E-006, -0.2216124, 0, 0
Line.EL_172215751, 110.6329, 199.8971, 110.6329, 199.8971, 0, 0
Line.EL_215472, 0.1035119, -0.3892424, 0.1035119, -0.3892424, 0, 0
Line.E_-1554294|D_FU91E49, 28.65205, 35.05452, 28.65205, 35.05452, 0, 0
Line.D_FU91E4939|D_FU91E4, 12.19077, 16.98174, 12.19077, 16.98174, 0, 0
Line.E_-1554287|E_-155429, 38.45519, 47.05347, 38.45519, 47.05347, 0, 0
Line.D_FU91E4961|D_FU91E5, 22.27576, 32.80728, 22.27576, 32.80728, 0, 0
Line.D_FU91E4765|E_-15542, 11.68762, 14.30207, 11.68762, 14.30207, 0, 0
Line.EL_118269800, 0.2750356, -0.3003783, 0.2750356, -0.3003783, 0, 0
Line.EL_212320788, 43.58712, 69.1827, 43.58712, 69.1827, 0, 0
Line.EL_117061411, 0.01844554, -0.2117595, 0.01844554, -0.2117595, 0, 0
Line.D_FU91E4687|D_FU91E4, 17.58409, 18.78262, 17.58409, 18.78262, 0, 0
Line.D_FU91E4687|FH94S212, 4.080986, 2.299457, 4.080986, 2.299457, 0, 0
Line.EL_221798770, 0.1325968, -23.0424, 0.1325968, -23.0424, 0, 0
Line.42E1200|EL_1227709, -2.372846E-007, -9.318329, -2.372846E-007, -9.318329, 0, 0
Line.FJ42E1040|42E1200, 12.13976, -28.98502, 12.13976, -28.98502, 0, 0
Line.EL_172215745, 110.6329, 199.8972, 110.6329, 199.8972, 0, 0
Line.D_A88L2085|88L2072, 0.7427525, -2.270794, 0.7427525, -2.270794, 0, 0
Line.FU91E4687|D_A88L2085, 0.1244036, -1.545383, 0.1244036, -1.545383, 0, 0
Line.FU91E4961|61E1143, 4.167182, -32.8305, 4.167182, -32.8305, 0, 0
Line.FU91E4765|91E4735, 0.6829795, -7.836036, 0.6829795, -7.836036, 0, 0
Line.FU91E4939|91E4939, 0.5693632, -2.140842, 0.5693632, -2.140842, 0, 0
Line.D_G71L1023|FG71L1039, 2.20032, -2.402898, 2.20032, -2.402898, 0, 0
Line.FU91E5016|D_G71L1023, 0.5500763, -0.6007429, 0.5500763, -0.6007429, 0, 0
Line.D_FY41L1000|D_O53E07, 6.454711, 1.134578, 6.454711, 1.134578, 0, 0
Line.D_FY41L1000|94S2338, 0.1110373, -17.86563, 0.1110373, -17.86563, 0, 0
Line.EL_154949994, 24.84176, 14.00259, 24.84176, 14.00259, 0, 0
Line.D_O53E0737|D_O53E066, 50.34785, 8.853381, 50.34785, 8.853381, 0, 0
Line.D_O53E0661|FY41L1000, 27.11119, 4.769908, 27.11119, 4.769908, 0, 0
Line.D_F90E1070|D_FT21E20, 2510.432, 4535.511, 2510.432, 4535.511, 0, 0
Line.EL_122147199, 11652.44, 21051.98, 11652.44, 21051.98, 0, 0
Line.EL_213908, 0.0693842, -10.01734, 0.0693842, -10.01734, 0, 0
Line.D_FF90E1021|D_F90E10, 2562.729, 4629.98, 2562.729, 4629.98, 0, 0
Line.90E1011|D_FF90E1021, 535.6096, 967.7155, 535.6096, 967.7155, 0, 0
Line.EL_152424367, 0.02989616, -0.2036379, 0.02989616, -0.2036379, 0, 0
Line.EL_114411043, 5516.485, 9967.56, 5516.485, 9967.56, 0, 0
Line.EL_152741406, 1158.46, 2093.176, 1158.46, 2093.176, 0, 0
Line.EL_199825812, 2316.918, 4186.34, 2316.918, 4186.34, 0, 0
Line.EL_212916, 2323.302, 4197.89, 2323.302, 4197.89, 0, 0
Line.EL_33234149, 3208.365, 5797.06, 3208.365, 5797.06, 0, 0
Line.EL_172215763, 1493.545, 2698.617, 1493.545, 2698.617, 0, 0
Line.EL_216237911, -8.765915E-007, -0.6625257, -8.765915E-007, -0.6625257, 0, 0
Line.EL_172215733, -7.211701E-007, -0.4420171, -7.211701E-007, -0.4420171, 0, 0
Line.EL_165499602, 55.31646, 99.94864, 55.31646, 99.94864, 0, 0
Line.EL_213840, 4.298551E-007, -3.533422, 4.298551E-007, -3.533422, 0, 0
Line.FG71L1039|71L1039, 0.4125684, -0.4505355, 0.4125684, -0.4505355, 0, 0
Line.FY41L1000|41L1000, 9.037189, 1.590406, 9.037189, 1.590406, 0, 0
Line.EL_732675, 1.439265E-006, -0.6625204, 1.439265E-006, -0.6625204, 0, 0
Line.EL_225208531, -1.144765E-007, -6.846004, -1.144765E-007, -6.846004, 0, 0
Line.EL_225208525, 1.439265E-006, -0.6625204, 1.439265E-006, -0.6625204, 0, 0
Line.EL_213934, 1.88803, -4.642563, 1.88803, -4.642563, 0, 0
Line.90E1382|D_FF97E0022, 5755.654, 10398.14, 5755.654, 10398.14, 0, 0
Line.D_FF97E0022|SF90E163, 6618.488, 11955.93, 6618.488, 11955.93, 0, 0
Line.SF90E1336|90E1382, 2548.981, 4605.18, 2548.981, 4605.18, 0, 0
Line.FT21E2000|21E1800, 0.2990302, -43.11687, 0.2990302, -43.11687, 0, 0
Line.21E1800|EL_1227798, 4.081379E-007, -7.86747, 4.081379E-007, -7.86747, 0, 0
Line.FF90E1021|90E1021, 0.4483384, -3.054542, 0.4483384, -3.054542, 0, 0
Line.EL_40214048, 0.05745345, -0.1844212, 0.05745345, -0.1844212, 0, 0
Line.D_FF90E1843|SF90E163, 10148.4, 18332.73, 10148.4, 18332.73, 0, 0
Line.D_FF90E1843|SF90E189, 1941.7, 3507.343, 1941.7, 3507.343, 0, 0
Line.FF97E0022|97E0238, 15.32478, -37.66719, 15.32478, -37.66719, 0, 0
Line.97E0238|D_F97E0376, 5.112636, -26.74308, 5.112636, -26.74308, 0, 0
Line.D_F97E0376|D_FN18E00, 1.391186, -7.27487, 1.391186, -7.27487, 0, 0
Line.EL_168187849, 0.00870321, -0.2116175, 0.00870321, -0.2116175, 0, 0
Line.D_FN18E0003|D_W30E10, 1.168562, -24.24621, 1.168562, -24.24621, 0, 0
Line.D_W30E1001|D_W29E119, 0.2642709, -5.481507, 0.2642709, -5.481507, 0, 0
Line.D_W29E1196|30E1035, 0.345626, -7.167988, 0.345626, -7.167988, 0, 0
Line.30E1035|D_TW30E1070, 0.1287293, -7.064271, 0.1287293, -7.064271, 0, 0
Line.EL_195533409, 9.457919E-006, -0.8643619, 9.457919E-006, -0.8643619, 0, 0
Line.EL_153858340, 1.129136, -62.50995, 1.129136, -62.50995, 0, 0
Line.EL_157875885, 1610.193, 2908.546, 1610.193, 2908.546, 0, 0
Line.D_SF90E1910|SF90E189, 1089.247, 1967.541, 1089.247, 1967.541, 0, 0
Line.EL_237750528, 4262.283, 7699.138, 4262.283, 7699.138, 0, 0
Line.EL_157875685, 2255.032, 4073.294, 2255.032, 4073.294, 0, 0
Line.EL_237750502, 187.9195, 339.442, 187.9195, 339.442, 0, 0
Line.E_-558710|E_-558716, 0.05692598, -8.109855, 0.05692598, -8.109855, 0, 0
Line.E_-558708|E_-558710, 0.05241168, -7.469668, 0.05241168, -7.469668, 0, 0
Line.E_-558716|E_-558718, 0.05095261, -7.256123, 0.05095261, -7.256123, 0, 0
Line.E_-558706|E_-558708, 0.05987576, -8.53684, 0.05987576, -8.53684, 0, 0
Line.E_-558718|28E0339, 0.04797177, -6.829239, 0.04797177, -6.829239, 0, 0
Line.E_-558704|E_-558706, 0.03890564, -5.54899, 0.03890564, -5.54899, 0, 0
Line.E_-558696|E_-558704, 0.05086134, -7.256423, 0.05086134, -7.256423, 0, 0
Line.28E0065|E_-558696, 0.03290101, -4.695365, 0.03290101, -4.695365, 0, 0
Line.D_N28E0001A|28E0065, 3.906987, -12.54024, 3.906987, -12.54024, 0, 0
Line.D_N28E0001A|FF90E184, 0.6894226, -2.213135, 0.6894226, -2.213135, 0, 0
Line.FN18E0003|E_-3093927, 0.02601318, -0.6348485, 0.02601318, -0.6348485, 0, 0
Line.E_-3093927|18E0096, 0.7545232, -18.41007, 0.7545232, -18.41007, 0, 0
Line.FK30E1753|30E1713, 0.1548397, -8.562458, 0.1548397, -8.562458, 0, 0
Line.EL_237750474, -6.090796E-006, -0.4256286, -6.090796E-006, -0.4256286, 0, 0
Line.EL_237750491, 845.6381, 1527.492, 845.6381, 1527.492, 0, 0
Line.EL_237750485, 187.9195, 339.4422, 187.9195, 339.4422, 0, 0
Line.EL_237750508, -4.547182E-006, -0.4257323, -4.547182E-006, -0.4257323, 0, 0
Line.EL_151171867, 3574.177, 6443.628, 3574.177, 6443.628, 0, 0
Line.EL_157875715, 845.6386, 1527.495, 845.6386, 1527.495, 0, 0
Line.EL_157875721, 17.52136, 30.45303, 17.52136, 30.45303, 0, 0
Line.02E4792|02E4914, 3161.344, 5699.087, 3161.344, 5699.087, 0, 0
Line.D_FI02E4712|02E4792, 2085.214, 3758.886, 2085.214, 3758.886, 0, 0
Line.EL_625104, 0.03615565, -0.1924159, 0.03615565, -0.1924159, 0, 0
Line.EL_158826763, 4659.652, 8398.288, 4659.652, 8398.288, 0, 0
Line.EL_164315155, -1.211816E-006, -0.4200885, -1.211816E-006, -0.4200885, 0, 0
Line.4I02E4429|D_4I02E442, 49.57115, 89.34568, 49.57115, 89.34568, 0, 0
Line.REG2_1, 24.78549, 44.67233, 24.78549, 44.67233, 0, 0
Line.REG2_2, 24.78549, 44.67234, 24.78549, 44.67234, 0, 0
Line.REG2_3, 2255.483, 4065.204, 2255.483, 4065.204, 0, 0
Line.EL_193926392, 105.1284, 182.7199, 105.1284, 182.7199, 0, 0
Line.EL_157875775, 227.7798, 395.902, 227.7798, 395.902, 0, 0
Line.EL_157875739, 131.4124, 228.4105, 131.4124, 228.4105, 0, 0
Line.EL_157875745, 128.4928, 223.3387, 128.4928, 223.3387, 0, 0
Line.EL_157875751, 81.76846, 142.1266, 81.76846, 142.1266, 0, 0
Line.EL_157875757, 67.16715, 116.7481, 67.16715, 116.7481, 0, 0
Line.EL_157875763, 90.52992, 157.3578, 90.52992, 157.3578, 0, 0
Line.EL_157875769, 58.40657, 101.5221, 58.40657, 101.5221, 0, 0
Line.EL_164315121, 74.35673, 134.0186, 74.35673, 134.0186, 0, 0
Line.FI02E4712|D_T71E0826, 1.338763, -7.119018, 1.338763, -7.119018, 0, 0
Line.D_T71E0826|71E1021, 6.550528, -34.82059, 6.550528, -34.82059, 0, 0
Line.EL_193925909, 199.7746, 346.9437, 199.7746, 346.9437, 0, 0
Line.EL_193926424, 296.8049, 515.4414, 296.8049, 515.4414, 0, 0
Line.EL_193925898, 259.7094, 451.0413, 259.7094, 451.0413, 0, 0
Line.EL_193926192, 0.0533972, -7.38767, 0.0533972, -7.38767, 0, 0
Line.D_TF90E2616|SF90E241, 578.2325, 1005.114, 578.2325, 1005.114, 0, 0
Line.EL_164901442, 268.2742, 465.928, 268.2742, 465.928, 0, 0
Line.EL_193926295, 0.02159154, -5.27322, 0.02159154, -5.27322, 0, 0
Line.EL_193926292, 171.0719, 296.8936, 171.0719, 296.8936, 0, 0
Line.EL_193925657, 967.5611, 1679.289, 967.5611, 1679.289, 0, 0
Line.EL_208095837, 159.8617, 277.4702, 159.8617, 277.4702, 0, 0
Line.EL_193925651, 85.32628, 147.9802, 85.32628, 147.9802, 0, 0
Line.EL_164901454, 482.0467, 240.7127, 482.0467, 240.7127, 0, 0
Line.EL_164901907, 493.005, 246.192, 493.005, 246.192, 0, 0
Line.EL_164901889, 121.1101, 210.0562, 121.1101, 210.0562, 0, 0
Line.EL_164315115, 49.57115, 89.34581, 49.57115, 89.34581, 0, 0
Line.D_FF90E3763|SF90E362, 415.6327, 720.904, 415.6327, 720.904, 0, 0
Line.EL_213142, 101.8449, 176.6521, 101.8449, 176.6521, 0, 0
Line.EL_215262600, 3.073577, 0.732073, 3.073577, 0.732073, 0, 0
Line.EL_213156, 217.5557, 366.2399, 217.5557, 366.2399, 0, 0
Line.EL_57345706, 2.239994E-005, -0.2099243, 2.239994E-005, -0.2099243, 0, 0
Line.EL_213166, 284.8694, 479.552, 284.8694, 479.552, 0, 0
Line.D_FF90E4120|SF90E425, 230.4822, 388.0124, 230.4822, 388.0124, 0, 0
Line.EL_214380, -8.511512E-006, -0.2097634, -8.511512E-006, -0.2097634, 0, 0
Line.EL_164315127, -3.578117E-006, -0.419924, -3.578117E-006, -0.419924, 0, 0
Line.EL_164315143, 1065.781, 1920.942, 1065.781, 1920.942, 0, 0
Line.EL_164315133, 49.57117, 89.34587, 49.57117, 89.34587, 0, 0
Line.BCF90E3763|FF90E3763, 9.370327E-006, -0.4202443, 9.370327E-006, -0.4202443, 0, 0
Line.SF90E3942|90E3942, 6.349316E-005, -1.4695, 6.349316E-005, -1.4695, 0, 0
Line.D_FF90E4362|SF90E425, 159.6941, 268.8546, 159.6941, 268.8546, 0, 0
Line.EL_215490, 0.01801218, -0.2001642, 0.01801218, -0.2001642, 0, 0
Line.EL_213196, 122.7036, 204.8117, 122.7036, 204.8117, 0, 0
Line.EL_213204, 65.04835, 108.5788, 65.04835, 108.5788, 0, 0
Line.EL_198296984, 42.63497, 71.13369, 42.63497, 71.13369, 0, 0
Line.EL_214456, 4.619775E-005, -0.209361, 4.619775E-005, -0.209361, 0, 0
Line.EL_210520022, 58.80717, 98.11737, 58.80717, 98.11737, 0, 0
Line.EL_237900516, 10.53807, 2.510318, 10.53807, 2.510318, 0, 0
Line.FF90E4120|90E4120, 8.185567E-006, -2.517056, 8.185567E-006, -2.517056, 0, 0
Line.EL_191329300, 1804.865, 3249.341, 1804.865, 3249.341, 0, 0
Line.EL_218865238, 735.261, 1324.005, 735.261, 1324.005, 0, 0
Line.EL_191329256, 0.007605195, -0.2039493, 0.007605195, -0.2039493, 0, 0
Line.EL_626238, 456.5148, 822.1293, 456.5148, 822.1293, 0, 0
Line.EL_627346, 0.001189452, -2.481307, 0.001189452, -2.481307, 0, 0
Line.EL_626252, 270.3496, 486.8727, 270.3496, 486.8727, 0, 0
Line.EL_627352, 0.01303892, -27.08747, 0.01303892, -27.08747, 0, 0
Line.EL_626258, 686.2713, 1235.904, 686.2713, 1235.904, 0, 0
Line.EL_626264, 707.0664, 1273.349, 707.0664, 1273.349, 0, 0
Line.EL_625092, 0.01049177, -0.2016738, 0.01049177, -0.2016738, 0, 0
Line.EL_626270, 3147.507, 5668.96, 3147.507, 5668.96, 0, 0
Line.EL_626282, 829.4074, 1493.828, 829.4074, 1493.828, 0, 0
Line.EL_625098, 1.515946E-005, -0.2078202, 1.515946E-005, -0.2078202, 0, 0
Line.EL_626288, 1999.209, 3600.711, 1999.209, 3600.711, 0, 0
Line.EL_626298, 2774.461, 4998.283, 2774.461, 4998.283, 0, 0
Line.EL_54641169, 1834.716, 3305.269, 1834.716, 3305.269, 0, 0
Line.EL_626308, 542.8086, 977.9274, 542.8086, 977.9274, 0, 0
Line.EL_5717362, 2.438651E-005, -0.2090356, 2.438651E-005, -0.2090356, 0, 0
Line.EL_198275733, 1334.532, 2404.292, 1334.532, 2404.292, 0, 0
...