2018.2/Mateus Jonathan dos Santos Tavares/Agf69_FaultStudy.Txt
FAULT STUDY REPORT

ALL-Node Fault Currents

Bus                     Node 1  X/R        Node 2  X/R        Node 3  X/R   ...  (Amps)

"BARRA100",            669810,   6.5,     669810,   6.5,     669810,   6.5
"BUS132",                7216,   4.9,       7216,   4.9,       7216,   4.9
"INICIO_AGF",            7215,   4.9,       7215,   4.9,       7215,   4.9
"CD_34E0508",            6511,   3.5,       6511,   3.5,       6511,   3.5
"CD_34E0508_2",        213628,   0.6,     213628,   0.6,     213628,   0.6
"CD_91E5092",            3613,   1.5,       3613,   1.5,       3613,   1.5
"CD_91E5092_2",        117573,   0.5,     117573,   0.5,     117573,   0.5
"CD_91E5688",            3954,   1.5,       3954,   1.5,       3954,   1.5
"CD_91E5688_2",        150841,   0.6,     150841,   0.6,     150841,   0.6
"CD_80E1234",            3628,   1.4,       3628,   1.4,       3628,   1.4
"CD_80E1234_2",        116466,   0.5,     116466,   0.5,     116466,   0.5
"CD_34E0585",            6176,   2.9,       6176,   2.9,       6176,   2.9
"CD_34E0585_2",        239870,   0.7,     239870,   0.7,     239870,   0.7
"CD_27E1076",            3840,   1.5,       3840,   1.5,       3840,   1.5
"CD_27E1076_2",        119992,   0.5,     119992,   0.5,     119992,   0.5
"CD_42E1200",            3563,   1.4,       3563,   1.4,       3563,   1.4
"CD_42E1200_2",        140764,   0.6,     140764,   0.6,     140764,   0.6
"CD_88L2072",            3303,   1.5,       3303,   1.5,       3303,   1.5
"CD_88L2072_2",        167903,   0.9,     167903,   0.9,     167903,   0.9
"CD_61E1143",            3313,   1.4,       3313,   1.4,       3313,   1.4
"CD_61E1143_2",        135464,   0.6,     135464,   0.6,     135464,   0.6
"CD_91E4735",            3314,   1.5,       3314,   1.5,       3314,   1.5
"CD_91E4735_2",        112774,   0.5,     112774,   0.5,     112774,   0.5
"CD_91E4939",            3488,   1.5,       3488,   1.5,       3488,   1.5
"CD_91E4939_2",        156049,   0.8,     156049,   0.8,     156049,   0.8
"CD_91E4939_3",         84570,   0.3,      84570,   0.3,      84570,   0.3
"CD_94S2338",            3129,   1.5,       3129,   1.5,       3129,   1.5
"CD_94S2338_2",        144834,   0.8,     144834,   0.8,     144834,   0.8
"CD_90E1011",            3757,   1.4,       3757,   1.4,       3757,   1.4
"CD_90E1011_2",        145312,   0.6,     145312,   0.6,     145312,   0.6
"CD_90E0848",            3850,   1.5,       3850,   1.5,       3850,   1.5
"CD_90E0848_2",        165865,   0.7,     165865,   0.7,     165865,   0.7
"CD_71L1039",            3510,   1.5,       3510,   1.5,       3510,   1.5
"CD_71L1039_2",        186330,   1.0,     186330,   1.0,     186330,   1.0
"CD_41L1000",            3062,   1.5,       3062,   1.5,       3062,   1.5
"CD_41L1000_2",        176234,   1.2,     176234,   1.2,     176234,   1.2
"CD_90E1382",            3557,   1.3,       3557,   1.3,       3557,   1.3
"CD_90E1382_2",         82809,   0.3,      82809,   0.3,      82809,   0.3
"CD_21E1800",            3342,   1.3,       3342,   1.3,       3342,   1.3
"CD_21E1800_2",         80924,   0.3,      80924,   0.3,      80924,   0.3
"CD_90E1021",            3723,   1.4,       3723,   1.4,       3723,   1.4
"CD_90E1021_2",        144402,   0.6,     144402,   0.6,     144402,   0.6
"CD_97E0238",            3189,   1.2,       3189,   1.2,       3189,   1.2
"CD_97E0238_2",         79026,   0.3,      79026,   0.3,      79026,   0.3
"CD_30E1035",            2811,   1.1,       2811,   1.1,       2811,   1.1
"CD_30E1035_2",         74806,   0.3,      74806,   0.3,      74806,   0.3
"CD_30E1070",            2776,   1.1,       2776,   1.1,       2776,   1.1
"CD_30E1070_2",         98671,   0.5,      98671,   0.5,      98671,   0.5
"CD_90E2031",            3267,   1.2,       3267,   1.2,       3267,   1.2
"CD_90E2031_2",        145195,   0.7,     145195,   0.7,     145195,   0.7
"CD_28E0339",            2937,   1.1,       2937,   1.1,       2937,   1.1
"CD_28E0339_2",        101818,   0.5,     101818,   0.5,     101818,   0.5
"CD_28E0065",            3240,   1.2,       3240,   1.2,       3240,   1.2
"CD_28E0065_2",        144454,   0.7,     144454,   0.7,     144454,   0.7
"CD_18E0096",            2893,   1.1,       2893,   1.1,       2893,   1.1
"CD_18E0096_2",        120644,   0.6,     120644,   0.6,     120644,   0.6
"CD_30E1713",            2493,   1.0,       2493,   1.0,       2493,   1.0
"CD_30E1713_2",         70806,   0.3,      70806,   0.3,      70806,   0.3
"CD_02E4914",            3166,   1.2,       3166,   1.2,       3166,   1.2
"CD_02E4914_2",        141712,   0.7,     141712,   0.7,     141712,   0.7
"CD_02E4792",            3113,   1.2,       3113,   1.2,       3113,   1.2
"CD_02E4792_2",        105117,   0.5,     105117,   0.5,     105117,   0.5
"CD_71E1021",            2840,   1.1,       2840,   1.1,       2840,   1.1
"CD_71E1021_2",         56529,   0.2,      56529,   0.2,      56529,   0.2
"CD_90E2616",            2928,   1.2,       2928,   1.2,       2928,   1.2
"CD_90E2616_2",         57390,   0.3,      57390,   0.3,      57390,   0.3
"CD_90E3019",            2783,   1.2,       2783,   1.2,       2783,   1.2
"CD_90E3019_2",         74757,   0.4,      74757,   0.4,      74757,   0.4
"CD_90E3475",            2627,   1.2,       2627,   1.2,       2627,   1.2
"CD_90E3475_2",         96411,   0.5,      96411,   0.5,      96411,   0.5
"CD_90E3942",            2430,   1.2,       2430,   1.2,       2430,   1.2
"CD_90E3942_2",        133495,   0.9,     133495,   0.9,     133495,   0.9
"CD_90E4120",            2371,   1.2,       2371,   1.2,       2371,   1.2
"CD_90E4120_2",         90747,   0.5,      90747,   0.5,      90747,   0.5
"CD_02E3554",            2654,   1.1,       2654,   1.1,       2654,   1.1
"CD_02E3554_2",        123849,   0.7,     123849,   0.7,     123849,   0.7
"CD_02E3976",            2791,   1.1,       2791,   1.1,       2791,   1.1
"CD_02E3976_2",         98621,   0.5,      98621,   0.5,      98621,   0.5
"CD_02E4181",            2863,   1.1,       2863,   1.1,       2863,   1.1
"CD_02E4181_2",         74962,   0.3,      74962,   0.3,      74962,   0.3
"CD_02E4345",            2924,   1.1,       2924,   1.1,       2924,   1.1
"CD_02E4345_2",        101391,   0.5,     101391,   0.5,     101391,   0.5
"CD_12L1200",            2155,   1.1,       2155,   1.1,       2155,   1.1
"CD_12L1200_2",         85442,   0.5,      85442,   0.5,      85442,   0.5
"CD_90E4431",            2264,   1.2,       2264,   1.2,       2264,   1.2
"CD_90E4431_2",         88461,   0.5,      88461,   0.5,      88461,   0.5
"CD_02E4262",            2873,   1.1,       2873,   1.1,       2873,   1.1
"CD_02E4262_2",        100332,   0.5,     100332,   0.5,     100332,   0.5
"CD_02E3585",            2638,   1.1,       2638,   1.1,       2638,   1.1
"CD_02E3585_2",         95301,   0.5,      95301,   0.5,      95301,   0.5
"CD_02E3281",            2573,   1.1,       2573,   1.1,       2573,   1.1
"CD_02E3281_2",         71353,   0.3,      71353,   0.3,      71353,   0.3
"CD_83E1122",            2536,   1.1,       2536,   1.1,       2536,   1.1
"CD_83E1122_2",         93033,   0.5,      93033,   0.5,      93033,   0.5
"CD_87L1201",            2499,   1.0,       2499,   1.0,       2499,   1.0
"CD_87L1201_2",         70415,   0.3,      70415,   0.3,      70415,   0.3
"CD_49L1070",            2361,   1.0,       2361,   1.0,       2361,   1.0
"CD_49L1070_2",         88994,   0.5,      88994,   0.5,      88994,   0.5
"CD_02E3869",            2726,   1.1,       2726,   1.1,       2726,   1.1
"CD_02E3869_2",         97232,   0.5,      97232,   0.5,      97232,   0.5
"CD_02E4204",            2846,   1.1,       2846,   1.1,       2846,   1.1
"CD_02E4204_2",        118978,   0.6,     118978,   0.6,     118978,   0.6
"CD_90E4832",            2167,   1.2,       2167,   1.2,       2167,   1.2
"CD_90E4832_2",         86311,   0.6,      86311,   0.6,      86311,   0.6
"CD_57E0980",            2085,   1.2,       2085,   1.2,       2085,   1.2
"CD_57E0980_2",         30831,   0.2,      30831,   0.2,      30831,   0.2
"CD_04L1127",            1861,   1.0,       1861,   1.0,       1861,   1.0
"CD_04L1127_2",         77286,   0.5,      77286,   0.5,      77286,   0.5
"CD_32E1043",            2439,   1.1,       2439,   1.1,       2439,   1.1
"CD_32E1043_2",        107802,   0.6,     107802,   0.6,     107802,   0.6
"CD_32E1597",            2144,   1.1,       2144,   1.1,       2144,   1.1
"CD_32E1597_2",        105559,   0.7,     105559,   0.7,     105559,   0.7
"CD_32E1726",            2084,   1.0,       2084,   1.0,       2084,   1.0
"CD_32E1726_2",         51081,   0.3,      51081,   0.3,      51081,   0.3
"CD_61E2134",            2275,   1.0,       2275,   1.0,       2275,   1.0
"CD_61E2134_2",         86908,   0.5,      86908,   0.5,      86908,   0.5
"CD_93E0066",            2324,   1.0,       2324,   1.0,       2324,   1.0
"CD_93E0066_2",         88081,   0.5,      88081,   0.5,      88081,   0.5
"CD_61E2872",            2457,   1.1,       2457,   1.1,       2457,   1.1
"CD_61E2872_2",         91228,   0.5,      91228,   0.5,      91228,   0.5
"CD_02E3107",            2522,   1.1,       2522,   1.1,       2522,   1.1
"CD_02E3107_2",         70683,   0.4,      70683,   0.4,      70683,   0.4
"CD_15E0937",            2451,   1.0,       2451,   1.0,       2451,   1.0
"CD_15E0937_2",         69763,   0.4,      69763,   0.4,      69763,   0.4
"CD_50E1041",            2568,   1.1,       2568,   1.1,       2568,   1.1
"CD_50E1041_2",         93765,   0.5,      93765,   0.5,      93765,   0.5
"CD_99E0315",            1928,   1.1,       1928,   1.1,       1928,   1.1
"CD_99E0315_2",        115525,   1.0,     115525,   1.0,     115525,   1.0
"CD_99E0258",            2001,   1.1,       2001,   1.1,       2001,   1.1
"CD_99E0258_2",         50715,   0.3,      50715,   0.3,      50715,   0.3
"CD_90E5064",            2102,   1.2,       2102,   1.2,       2102,   1.2
"CD_90E5064_2",         97563,   0.7,      97563,   0.7,      97563,   0.7
"CD_98L1178",            2048,   1.0,       2048,   1.0,       2048,   1.0
"CD_98L1178_2",        109572,   0.8,     109572,   0.8,     109572,   0.8
"CD_32E1991",            1964,   1.0,       1964,   1.0,       1964,   1.0
"CD_32E1991_2",         63338,   0.4,      63338,   0.4,      63338,   0.4
"CD_61E1841",            2206,   1.0,       2206,   1.0,       2206,   1.0
"CD_61E1841_2",         66179,   0.4,      66179,   0.4,      66179,   0.4
"CD_80L2099",            2155,   1.0,       2155,   1.0,       2155,   1.0
"CD_80L2099_2",        105043,   0.7,     105043,   0.7,     105043,   0.7
"CD_64E1626",            2160,   1.0,       2160,   1.0,       2160,   1.0
"CD_64E1626_2",         84057,   0.5,      84057,   0.5,      84057,   0.5
"CD_92E1301",            2230,   1.0,       2230,   1.0,       2230,   1.0
"CD_92E1301_2",         66570,   0.4,      66570,   0.4,      66570,   0.4
"CD_92E1343",            2197,   1.0,       2197,   1.0,       2197,   1.0
"CD_92E1343_2",         98573,   0.6,      98573,   0.6,      98573,   0.6
"CD_89L2325",            1842,   0.9,       1842,   0.9,       1842,   0.9
"CD_89L2325_2",         75651,   0.5,      75651,   0.5,      75651,   0.5
"CD_64E2403",            1781,   0.9,       1781,   0.9,       1781,   0.9
"CD_64E2403_2",         29004,   0.2,      29004,   0.2,      29004,   0.2
"CD_60E0367",            2291,   1.0,       2291,   1.0,       2291,   1.0
"CD_60E0367_2",         52220,   0.3,      52220,   0.3,      52220,   0.3
"CD_40E1169",            1996,   0.9,       1996,   0.9,       1996,   0.9
"CD_40E1169_2",         79816,   0.5,      79816,   0.5,      79816,   0.5
"CD_64E0305",            2124,   1.0,       2124,   1.0,       2124,   1.0
"CD_64E0305_2",         64944,   0.4,      64944,   0.4,      64944,   0.4
"CD_64E0575",            1977,   0.9,       1977,   0.9,       1977,   0.9
"CD_64E0575_2",         91078,   0.6,      91078,   0.6,      91078,   0.6
"CD_99E0272",            1986,   1.1,       1986,   1.1,       1986,   1.1
"CD_99E0272_2",         81334,   0.6,      81334,   0.6,      81334,   0.6
"CD_99E0295",            1979,   1.1,       1979,   1.1,       1979,   1.1
"CD_99E0295_2",        111276,   0.9,     111276,   0.9,     111276,   0.9
"CD_99E0310",            1981,   1.1,       1981,   1.1,       1981,   1.1
"CD_99E0310_2",        107270,   0.8,     107270,   0.8,     107270,   0.8
"CD_51L3125",            1920,   1.0,       1920,   1.0,       1920,   1.0
"CD_51L3125_2",         62561,   0.4,      62561,   0.4,      62561,   0.4
"CD_96E1208",            1739,   0.9,       1739,   0.9,       1739,   0.9
"CD_96E1208_2",         59239,   0.4,      59239,   0.4,      59239,   0.4
"CD_96E0877",            1792,   1.0,       1792,   1.0,       1792,   1.0
"CD_96E0877_2",         60239,   0.4,      60239,   0.4,      60239,   0.4
"CD_24E1155",            2164,   1.0,       2164,   1.0,       2164,   1.0
"CD_24E1155_2",         84129,   0.5,      84129,   0.5,      84129,   0.5
"CD_28E2347",            1739,   1.0,       1739,   1.0,       1739,   1.0
"CD_28E2347_2",         47419,   0.3,      47419,   0.3,      47419,   0.3
"CD_33E1707",            1692,   0.9,       1692,   0.9,       1692,   0.9
"CD_33E1707_2",         72143,   0.5,      72143,   0.5,      72143,   0.5
"CD_91L2332",            1711,   1.0,       1711,   1.0,       1711,   1.0
"CD_91L2332_2",         29112,   0.2,      29112,   0.2,      29112,   0.2
"CD_91L2703",            1599,   0.9,       1599,   0.9,       1599,   0.9
"CD_91L2703_2",         69581,   0.5,      69581,   0.5,      69581,   0.5
"CD_46E1040",            1866,   1.0,       1866,   1.0,       1866,   1.0
"CD_46E1040_2",         61674,   0.4,      61674,   0.4,      61674,   0.4
"CD_65L1133",            1698,   0.9,       1698,   0.9,       1698,   0.9
"CD_65L1133_2",         72309,   0.5,      72309,   0.5,      72309,   0.5
"CD_22E2801",            1809,   0.9,       1809,   0.9,       1809,   0.9
"CD_22E2801_2",         74642,   0.5,      74642,   0.5,      74642,   0.5
"CD_22E2658",            1869,   0.9,       1869,   0.9,       1869,   0.9
"CD_22E2658_2",         87195,   0.6,      87195,   0.6,      87195,   0.6
"CD_22E3027",            1718,   0.9,       1718,   0.9,       1718,   0.9
"CD_22E3027_2",         81696,   0.6,      81696,   0.6,      81696,   0.6
"CD_22E2299",            2036,   1.0,       2036,   1.0,       2036,   1.0
"CD_22E2299_2",         80864,   0.5,      80864,   0.5,      80864,   0.5
"CD_19L2076",            1935,   0.9,       1935,   0.9,       1935,   0.9
"CD_19L2076_2",         78151,   0.5,      78151,   0.5,      78151,   0.5
"CD_22E2153",            2091,   1.0,       2091,   1.0,       2091,   1.0
"CD_22E2153_2",         82262,   0.5,      82262,   0.5,      82262,   0.5
"CD_35E2158",            2092,   1.0,       2092,   1.0,       2092,   1.0
"CD_35E2158_2",         82312,   0.5,      82312,   0.5,      82312,   0.5
"CD_36L1030",            1576,   0.9,       1576,   0.9,       1576,   0.9
"CD_36L1030_2",         56118,   0.4,      56118,   0.4,      56118,   0.4
"CD_17L1115",            1556,   0.9,       1556,   0.9,       1556,   0.9
"CD_17L1115_2",         55670,   0.4,      55670,   0.4,      55670,   0.4
"CD_91L2615",            1621,   0.9,       1621,   0.9,       1621,   0.9
"CD_91L2615_2",         70206,   0.5,      70206,   0.5,      70206,   0.5
"CD_91L2659",            1611,   0.9,       1611,   0.9,       1611,   0.9
"CD_91L2659_2",         78588,   0.6,      78588,   0.6,      78588,   0.6
"CD_91L2753",            1572,   0.9,       1572,   0.9,       1572,   0.9
"CD_91L2753_2",         77111,   0.6,      77111,   0.6,      77111,   0.6
"CD_61E1262",            2076,   1.0,       2076,   1.0,       2076,   1.0
"CD_61E1262_2",         82065,   0.5,      82065,   0.5,      82065,   0.5
"CD_61E1433",            2113,   1.0,       2113,   1.0,       2113,   1.0
"CD_61E1433_2",         82961,   0.5,      82961,   0.5,      82961,   0.5
"CD_61E1592",            2149,   1.0,       2149,   1.0,       2149,   1.0
"CD_61E1592_2",         97065,   0.6,      97065,   0.6,      97065,   0.6
"CD_92L1125",            2006,   1.0,       2006,   1.0,       2006,   1.0
"CD_92L1125_2",         92121,   0.6,      92121,   0.6,      92121,   0.6
"CD_55E0739",            1533,   0.8,       1533,   0.8,       1533,   0.8
"CD_55E0739_2",         54390,   0.4,      54390,   0.4,      54390,   0.4
"CD_34L0960",            1720,   0.9,       1720,   0.9,       1720,   0.9
"CD_34L0960_2",         46333,   0.3,      46333,   0.3,      46333,   0.3
"CD_55L0247",            1698,   0.9,       1698,   0.9,       1698,   0.9
"CD_55L0247_2",         71466,   0.5,      71466,   0.5,      71466,   0.5
"CD_51L0239",            1840,   0.9,       1840,   0.9,       1840,   0.9
"CD_51L0239_2",         75478,   0.5,      75478,   0.5,      75478,   0.5
"CD_94L1247",            1863,   0.9,       1863,   0.9,       1863,   0.9
"CD_94L1247_2",         93284,   0.6,      93284,   0.6,      93284,   0.6
"CD_94L1083",            1936,   0.9,       1936,   0.9,       1936,   0.9
"CD_94L1083_2",         89618,   0.6,      89618,   0.6,      89618,   0.6
"CD_84L1083",            1829,   0.9,       1829,   0.9,       1829,   0.9
"CD_84L1083_2",         60060,   0.4,      60060,   0.4,      60060,   0.4
"CD_36E2960",            2033,   0.9,       2033,   0.9,       2033,   0.9
"CD_36E2960_2",         80665,   0.5,      80665,   0.5,      80665,   0.5
"CD_40L0971",            1920,   0.9,       1920,   0.9,       1920,   0.9
"CD_40L0971_2",         77562,   0.5,      77562,   0.5,      77562,   0.5
"CD_61E0386",            1870,   1.0,       1870,   1.0,       1870,   1.0
"CD_61E0386_2",         87860,   0.6,      87860,   0.6,      87860,   0.6
"CD_61E0609",            1913,   1.0,       1913,   1.0,       1913,   1.0
"CD_61E0609_2",         95734,   0.7,      95734,   0.7,      95734,   0.7
"CD_88E1200",            1835,   1.0,       1835,   1.0,       1835,   1.0
"CD_88E1200_2",         75920,   0.5,      75920,   0.5,      75920,   0.5
"CD_30L1090",            1721,   0.9,       1721,   0.9,       1721,   0.9
"CD_30L1090_2",         81918,   0.6,      81918,   0.6,      81918,   0.6
"CD_50L1124",            1679,   0.9,       1679,   0.9,       1679,   0.9
"CD_50L1124_2",         80339,   0.6,      80339,   0.6,      80339,   0.6
"CD_32L1118",            1845,   0.9,       1845,   0.9,       1845,   0.9
"CD_32L1118_2",         75803,   0.5,      75803,   0.5,      75803,   0.5
"CD_23E1193",            1632,   0.9,       1632,   0.9,       1632,   0.9
"CD_23E1193_2",         78561,   0.6,      78561,   0.6,      78561,   0.6
"CD_23E1231",            1619,   0.9,       1619,   0.9,       1619,   0.9
"CD_23E1231_2",         69231,   0.5,      69231,   0.5,      69231,   0.5
"CD_52E2040",            2013,   1.0,       2013,   1.0,       2013,   1.0
"CD_52E2040_2",         80441,   0.5,      80441,   0.5,      80441,   0.5
"CD_26E2714",            1546,   0.8,       1546,   0.8,       1546,   0.8
"CD_26E2714_2",         67019,   0.5,      67019,   0.5,      67019,   0.5
"CD_61E1445",            2111,   1.0,       2111,   1.0,       2111,   1.0
"CD_61E1445_2",         82902,   0.5,      82902,   0.5,      82902,   0.5
"CD_35L1084",            1697,   0.9,       1697,   0.9,       1697,   0.9
"CD_35L1084_2",         80900,   0.6,      80900,   0.6,      80900,   0.6
"CD_51L0211",            1850,   0.9,       1850,   0.9,       1850,   0.9
"CD_51L0211_2",         75754,   0.5,      75754,   0.5,      75754,   0.5
"CD_94L1084",            1986,   0.9,       1986,   0.9,       1986,   0.9
"CD_94L1084_2",         79543,   0.5,      79543,   0.5,      79543,   0.5
"CD_55E1808",            1800,   1.0,       1800,   1.0,       1800,   1.0
"CD_55E1808_2",         47505,   0.3,      47505,   0.3,      47505,   0.3
"CD_61E1084",            2026,   1.0,       2026,   1.0,       2026,   1.0
"CD_61E1084_2",        123410,   0.9,     123410,   0.9,     123410,   0.9
"CD_93E0675",            1906,   1.0,       1906,   1.0,       1906,   1.0
"CD_93E0675_2",         89021,   0.6,      89021,   0.6,      89021,   0.6
"CD_93E0565",            1855,   1.0,       1855,   1.0,       1855,   1.0
"CD_93E0565_2",         76403,   0.5,      76403,   0.5,      76403,   0.5
"CD_98E1580",            1689,   0.9,       1689,   0.9,       1689,   0.9
"CD_98E1580_2",         80917,   0.6,      80917,   0.6,      80917,   0.6
"CD_98E1318",            1785,   1.0,       1785,   1.0,       1785,   1.0
"CD_98E1318_2",         96978,   0.7,      96978,   0.7,      96978,   0.7
"CD_36L1310",            1561,   0.9,       1561,   0.9,       1561,   0.9
"CD_36L1310_2",         80729,   0.6,      80729,   0.6,      80729,   0.6
"CD_93E0896",            1871,   1.0,       1871,   1.0,       1871,   1.0
"CD_93E0896_2",         76864,   0.5,      76864,   0.5,      76864,   0.5
"CD_55E1989",            1752,   0.9,       1752,   0.9,       1752,   0.9
"CD_55E1989_2",         73432,   0.5,      73432,   0.5,      73432,   0.5
"CD_83L1034",            1464,   0.9,       1464,   0.9,       1464,   0.9
"CD_83L1034_2",         64602,   0.5,      64602,   0.5,      64602,   0.5
"CD_36L1428",            1591,   0.9,       1591,   0.9,       1591,   0.9
"CD_36L1428_2",         68524,   0.5,      68524,   0.5,      68524,   0.5
"CD_06E1605",            1679,   0.9,       1679,   0.9,       1679,   0.9
"CD_06E1605_2",         85764,   0.7,      85764,   0.7,      85764,   0.7
"CD_36L1488",            1609,   0.9,       1609,   0.9,       1609,   0.9
"CD_36L1488_2",         69081,   0.5,      69081,   0.5,      69081,   0.5
"CD_50E0188",            1518,   0.9,       1518,   0.9,       1518,   0.9
"CD_50E0188_2",         66311,   0.5,      66311,   0.5,      66311,   0.5
"CD_87E0416",            1577,   0.9,       1577,   0.9,       1577,   0.9
"CD_87E0416_2",         68117,   0.5,      68117,   0.5,      68117,   0.5
"CD_98E1042",            1882,   1.0,       1882,   1.0,       1882,   1.0
"CD_98E1042_2",         88183,   0.6,      88183,   0.6,      88183,   0.6
"CD_32E3228",            1537,   0.9,       1537,   0.9,       1537,   0.9
"CD_32E3228_2",         66908,   0.5,      66908,   0.5,      66908,   0.5
"CD_78L0804",            1421,   0.8,       1421,   0.8,       1421,   0.8
"CD_78L0804_2",         63130,   0.5,      63130,   0.5,      63130,   0.5
"PA_D_AGF01I2",          7182,   4.8,       7182,   4.8,       7182,   4.8
"PA_D_AG3",              7147,   4.7,       7147,   4.7,       7147,   4.7
"PA_D_AG1",              7034,   4.5,       7034,   4.5,       7034,   4.5
"COMT_AGF01I2",          7210,   4.9,       7210,   4.9,       7210,   4.9
"DMUM_SG92E2724",        7001,   4.4,       7001,   4.4,       7001,   4.4
"PA_D_FH94E0506",        6546,   3.6,       6546,   3.6,       6546,   3.6
"PA_D_F34E0487",         6512,   3.6,       6512,   3.6,       6512,   3.6
"PA_D_SF34E0409",        6376,   3.4,       6376,   3.4,       6376,   3.4
"BVIRT_FH94E0506",       6542,   3.6,       6542,   3.6,       6542,   3.6
"PA_D_H94E0383",         6776,   4.0,       6776,   4.0,       6776,   4.0
"PA_D_G92E2831",         6799,   4.0,       6799,   4.0,       6799,   4.0
"PA_E_-2691602",         6978,   4.4,       6978,   4.4,       6978,   4.4
"BVIRT_SG92E2724",       6996,   4.4,       6996,   4.4,       6996,   4.4
"DMUM_SF34E0409",        6372,   3.4,       6372,   3.4,       6372,   3.4
"PA_E_-2523928",         6357,   3.4,       6357,   3.4,       6357,   3.4
"PA_E_-2523938",         6220,   3.2,       6220,   3.2,       6220,   3.2
"PA_E_-2523946",         6105,   3.1,       6105,   3.1,       6105,   3.1
"PA_E_-2523948",         6084,   3.1,       6084,   3.1,       6084,   3.1
"PA_E_-2523962",         6002,   3.0,       6002,   3.0,       6002,   3.0
"PA_E_-2523964",         5986,   3.0,       5986,   3.0,       5986,   3.0
"PA_E_-2523970",         5906,   2.9,       5906,   2.9,       5906,   2.9
"PA_E_-2523974",         5840,   2.8,       5840,   2.8,       5840,   2.8
"PA_E_-2524106",         5816,   2.8,       5816,   2.8,       5816,   2.8
"PA_D_F35E2570",         5597,   2.6,       5597,   2.6,       5597,   2.6
"PA_D_F53E2704",         5503,   2.5,       5503,   2.5,       5503,   2.5
"PA_E_-11528486",        5288,   2.4,       5288,   2.4,       5288,   2.4
"PA_D_F35E3265",         5076,   2.2,       5076,   2.2,       5076,   2.2
"PA_E_-3130024",         4877,   2.1,       4877,   2.1,       4877,   2.1
"PA_E_-3130025",         4855,   2.1,       4855,   2.1,       4855,   2.1
"PA_D_U91E4653",         4672,   2.0,       4672,   2.0,       4672,   2.0
"PA_D_U91E4719",         4644,   1.9,       4644,   1.9,       4644,   1.9
"PA_E_-3130105",         4529,   1.9,       4529,   1.9,       4529,   1.9
"PA_E_-3130118",         4351,   1.7,       4351,   1.7,       4351,   1.7
"PA_D_FU91S5343",        4165,   1.6,       4165,   1.6,       4165,   1.6
"BVIRT_SU91E5628",       4043,   1.6,       4043,   1.6,       4043,   1.6
"BVIRT_FU91S5343",       4164,   1.6,       4164,   1.6,       4164,   1.6
"PA_D_FF34E0585",        6251,   3.1,       6251,   3.1,       6251,   3.1
"DMUM_FH94E0506",        6536,   3.6,       6536,   3.6,       6536,   3.6
"BVIRT_FF34E0585",       6247,   3.0,       6247,   3.0,       6247,   3.0
"PA_EL_1196718",         6126,   2.9,       6126,   2.9,       6126,   2.9
"PA_D_U91E5215",         3708,   1.5,       3708,   1.5,       3708,   1.5
"PA_D_FU91E5131",        3644,   1.5,       3644,   1.5,       3644,   1.5
"PA_E_-1563608",         3772,   1.5,       3772,   1.5,       3772,   1.5
"DMUM_FU91E5131",        3642,   1.5,       3642,   1.5,       3642,   1.5
"PA_E_-1563614",         3868,   1.5,       3868,   1.5,       3868,   1.5
"DMUM_SU91E5061",        3583,   1.5,       3583,   1.5,       3583,   1.5
"PA_D_FJ42E1040",        3937,   1.5,       3937,   1.5,       3937,   1.5
"DMUM_FJ42E1040",        3813,   1.5,       3813,   1.5,       3813,   1.5
"PA_D_D_SU91E5547",      4009,   1.5,       4009,   1.5,       4009,   1.5
"PA_D_SU91E5547",        4026,   1.5,       4026,   1.5,       4026,   1.5
"PA_D_U91E5614",         3979,   1.5,       3979,   1.5,       3979,   1.5
"PA_D_SU91E5628",        4041,   1.6,       4041,   1.6,       4041,   1.6
"DMUM_SU91E5628",        4042,   1.6,       4042,   1.6,       4042,   1.6
"DMUM_FK27E0971",        4025,   1.5,       4025,   1.5,       4025,   1.5
"PA_D_RG_U91E5671",      3942,   1.5,       3942,   1.5,       3942,   1.5
"PA_D_4U91E5732",        3935,   1.5,       3935,   1.5,       3935,   1.5
"BVIRT_6U91E5732",       3932,   1.5,       3932,   1.5,       3932,   1.5
"BVIRT_4U91E5732",       3934,   1.5,       3934,   1.5,       3934,   1.5
"BAR_1",                 3942,   1.5,       3942,   1.5,       3942,   1.5
"BAR_2",                 3941,   1.5,       3941,   1.5,       3941,   1.5
"PA_E_-10968873",        4142,   1.6,       4142,   1.6,       4142,   1.6
"PA_D_T80E0970",         4082,   1.6,       4082,   1.6,       4082,   1.6
"PA_E_-10968879",        4023,   1.6,       4023,   1.6,       4023,   1.6
"DMUM_FU91S5343",        4161,   1.6,       4161,   1.6,       4161,   1.6
"DMUM_FF34E0585",        6241,   3.0,       6241,   3.0,       6241,   3.0
"BVIRT_FU91E5131",       3640,   1.5,       3640,   1.5,       3640,   1.5
"CUMT_BCU91E5131",       3638,   1.5,       3638,   1.5,       3638,   1.5
"DMUM_4U91E5732",        3932,   1.5,       3932,   1.5,       3932,   1.5
"BVIRT_SU91E5732",       3931,   1.5,       3931,   1.5,       3931,   1.5
"PA_D_FU91E4939",        3508,   1.5,       3508,   1.5,       3508,   1.5
"BVIRT_FU91E4939",       3505,   1.5,       3505,   1.5,       3505,   1.5
"PA_E_-1554294",         3454,   1.5,       3454,   1.5,       3454,   1.5
"PA_D_FU91E4961",        3524,   1.5,       3524,   1.5,       3524,   1.5
"PA_E_-1554287",         3384,   1.6,       3384,   1.6,       3384,   1.6
"PA_D_FU91E5016",        3549,   1.5,       3549,   1.5,       3549,   1.5
"PA_D_FU91E4765",        3364,   1.6,       3364,   1.6,       3364,   1.6
"DMUM_FU91E5016",        3546,   1.5,       3546,   1.5,       3546,   1.5
"BVIRT_SU91E5061",       3581,   1.5,       3581,   1.5,       3581,   1.5
"BVIRT_FU91E4765",       3362,   1.6,       3362,   1.6,       3362,   1.6
"PA_D_FU91E4687",        3325,   1.6,       3325,   1.6,       3325,   1.6
"DMUM_FH94S2125",        3310,   1.6,       3310,   1.6,       3310,   1.6
"BVIRT_FK27E0971",       4022,   1.5,       4022,   1.5,       4022,   1.5
"PA_EL_1227709",         3502,   1.4,       3502,   1.4,       3502,   1.4
"BVIRT_FJ42E1040",       3811,   1.5,       3811,   1.5,       3811,   1.5
"DMUM_SU91E5732",        3929,   1.5,       3929,   1.5,       3929,   1.5
"BVIRT_5U91E5732",       3928,   1.5,       3928,   1.5,       3928,   1.5
"PA_D_A88L2085",         3318,   1.6,       3318,   1.6,       3318,   1.6
"DMUM_FU91E4687",        3323,   1.6,       3323,   1.6,       3323,   1.6
"DMUM_FU91E4961",        3522,   1.5,       3522,   1.5,       3522,   1.5
"DMUM_FU91E4765",        3360,   1.5,       3360,   1.5,       3360,   1.5
"DMUM_FU91E4939",        3503,   1.5,       3503,   1.5,       3503,   1.5
"PA_D_G71L1023",         3538,   1.5,       3538,   1.5,       3538,   1.5
"BVIRT_FG71L1039",       3516,   1.5,       3516,   1.5,       3516,   1.5
"BVIRT_FU91E5016",       3544,   1.5,       3544,   1.5,       3544,   1.5
"PA_D_FY41L1000",        3221,   1.6,       3221,   1.6,       3221,   1.6
"PA_D_O53E0737",         3209,   1.5,       3209,   1.5,       3209,   1.5
"BVIRT_FH94S2125",       3308,   1.6,       3308,   1.6,       3308,   1.6
"PA_D_O53E0661",         3123,   1.5,       3123,   1.5,       3123,   1.5
"BVIRT_FY41L1000",       3078,   1.5,       3078,   1.5,       3078,   1.5
"PA_D_F90E1070",         3725,   1.4,       3725,   1.4,       3725,   1.4
...